# generated using pymatgen
data_LiCuNO2
_symmetry_space_group_name_H-M   'P 1'
_cell_length_a   3.83163915
_cell_length_b   3.83163915
_cell_length_c   3.83163915
_cell_angle_alpha   90.00000000
_cell_angle_beta   90.00000000
_cell_angle_gamma   90.00000000
_symmetry_Int_Tables_number   1
_chemical_formula_structural   LiCuNO2
_chemical_formula_sum   'Li1 Cu1 N1 O2'
_cell_volume   56.25405148
_cell_formula_units_Z   1
loop_
 _symmetry_equiv_pos_site_id
 _symmetry_equiv_pos_as_xyz
  1  'x, y, z'
loop_
 _atom_site_type_symbol
 _atom_site_label
 _atom_site_symmetry_multiplicity
 _atom_site_fract_x
 _atom_site_fract_y
 _atom_site_fract_z
 _atom_site_occupancy
  Li  Li0  1  0.17482336  1.00000000  1.00000000  1
  Cu  Cu1  1  0.53729127  0.50000000  0.50000000  1
  N  N2  1  0.59202111  1.00000000  0.50000000  1
  O  O3  1  0.41473517  0.50000000  1.00000000  1
  O  O4  1  0.03557116  0.50000000  0.50000000  1
