# generated using pymatgen
data_KSnSO2
_symmetry_space_group_name_H-M   'P 1'
_cell_length_a   4.60645541
_cell_length_b   4.60645541
_cell_length_c   4.60645541
_cell_angle_alpha   90.00000000
_cell_angle_beta   90.00000000
_cell_angle_gamma   90.00000000
_symmetry_Int_Tables_number   1
_chemical_formula_structural   KSnSO2
_chemical_formula_sum   'K1 Sn1 S1 O2'
_cell_volume   97.74636464
_cell_formula_units_Z   1
loop_
 _symmetry_equiv_pos_site_id
 _symmetry_equiv_pos_as_xyz
  1  'x, y, z'
loop_
 _atom_site_type_symbol
 _atom_site_label
 _atom_site_symmetry_multiplicity
 _atom_site_fract_x
 _atom_site_fract_y
 _atom_site_fract_z
 _atom_site_occupancy
  K  K0  1  0.95912862  0.00000000  0.00000000  1
  Sn  Sn1  1  0.58668420  0.50000000  0.50000000  1
  S  S2  1  0.39653031  0.00000000  0.50000000  1
  O  O3  1  0.56127744  0.50000000  0.00000000  1
  O  O4  1  0.02853663  0.50000000  0.50000000  1
